Version 4
SHEET 1 1260 1156
WIRE 176 -256 176 -288
WIRE -624 -160 -688 -160
WIRE -480 -160 -544 -160
WIRE 176 -144 176 -176
WIRE 560 -144 176 -144
WIRE 736 -144 560 -144
WIRE -480 -128 -480 -160
WIRE 736 -112 736 -144
WIRE 176 -48 176 -144
WIRE -688 -32 -688 -160
WIRE -480 -16 -480 -48
WIRE 560 -16 560 -144
WIRE 736 16 736 -32
WIRE 896 16 736 16
WIRE 992 16 960 16
WIRE 736 64 736 16
WIRE -688 96 -688 48
WIRE 176 112 176 32
WIRE 336 112 176 112
WIRE 560 112 560 64
WIRE 560 112 400 112
WIRE 672 112 560 112
WIRE 176 128 176 112
WIRE 560 176 560 112
WIRE -64 192 -128 192
WIRE 96 192 -64 192
WIRE 128 192 96 192
WIRE 736 192 736 160
WIRE 928 192 736 192
WIRE -1040 224 -1040 160
WIRE -896 224 -896 176
WIRE -688 224 -688 176
WIRE 736 224 736 192
WIRE 928 224 928 192
WIRE 176 240 176 224
WIRE 336 240 176 240
WIRE -64 256 -64 192
WIRE 176 256 176 240
WIRE 336 272 336 240
WIRE -688 352 -688 304
WIRE 560 352 560 256
WIRE 736 352 736 304
WIRE 928 352 928 288
WIRE -64 384 -64 336
WIRE 176 384 176 336
WIRE 336 384 336 336
WIRE 592 432 528 432
WIRE 528 464 528 432
WIRE 592 512 592 432
WIRE 496 576 496 560
WIRE 528 592 528 544
WIRE 480 608 432 608
WIRE 592 624 592 576
WIRE 432 640 432 608
WIRE 672 656 608 656
WIRE 752 656 672 656
WIRE 896 656 816 656
WIRE 672 688 672 656
WIRE 896 688 896 656
WIRE -720 704 -720 640
WIRE -720 704 -752 704
WIRE -640 704 -720 704
WIRE -496 704 -576 704
WIRE -352 704 -496 704
WIRE -272 704 -352 704
WIRE -208 704 -224 704
WIRE 272 704 192 704
WIRE 400 704 352 704
WIRE 480 704 400 704
WIRE -496 752 -496 704
WIRE -352 752 -352 704
WIRE 400 752 400 704
WIRE -720 784 -720 704
WIRE 496 784 496 736
WIRE 672 816 672 768
WIRE 896 816 896 768
WIRE 400 864 400 832
WIRE -720 896 -720 864
WIRE -496 896 -496 816
WIRE -352 896 -352 832
WIRE 672 912 672 880
FLAG 176 384 0
FLAG -64 384 0
FLAG 176 112 VD
FLAG 96 192 VG
FLAG 176 224 VS
FLAG -688 352 0
FLAG 336 384 0
FLAG 928 352 0
FLAG 736 352 0
FLAG 560 352 0
FLAG 176 -288 VCC
FLAG -896 96 VCC
FLAG -896 224 0
FLAG -192 192 SIGNAL_IN
FLAG 496 784 0
FLAG 432 640 0
FLAG 896 816 0
FLAG 672 912 0
FLAG 496 560 VCC
FLAG 400 864 0
FLAG -496 896 0
FLAG -352 896 0
FLAG -720 896 0
FLAG -720 560 VCC
FLAG 896 656 SIGNAL_OUT
FLAG 192 704 DETECTOR_OUT
FLAG -208 704 DETECTOR_OUT
FLAG -1040 224 0
FLAG -1040 96 VCC
FLAG 992 16 RF-AMP_OUT
FLAG -480 -16 0
FLAG -480 -160 SIGNAL_IN
FLAG -752 704 RF-AMP_OUT
SYMBOL njf 128 128 R0
SYMATTR InstName J1
SYMATTR Value 2N3819
SYMBOL res 160 -272 R0
SYMATTR InstName RD
SYMATTR Value 330
SYMBOL res 160 240 R0
SYMATTR InstName RS
SYMATTR Value 1k
SYMBOL res -80 240 R0
SYMATTR InstName RG
SYMATTR Value 1Meg
SYMBOL voltage -896 80 R0
SYMATTR InstName VDD
SYMATTR Value 9V
SYMBOL voltage -688 -48 R0
SYMATTR InstName Vhi
SYMATTR Value SINE(0, .0025V, 1231kHz)
SYMBOL voltage -688 80 R0
SYMATTR InstName Vcar
SYMATTR Value SINE(0, .01V, 1230kHz)
SYMBOL voltage -688 208 R0
SYMATTR InstName Vlo
SYMATTR Value SINE(0, .0025V, 1229kHz)
SYMBOL cap -128 176 R90
WINDOW 0 0 32 VBottom 2
WINDOW 3 32 32 VTop 2
SYMATTR InstName Cc1
SYMATTR Value 1µF
SYMBOL cap 320 272 R0
SYMATTR InstName Cs
SYMATTR Value 1µF
SYMBOL cap 400 96 R90
WINDOW 0 0 32 VBottom 2
WINDOW 3 32 32 VTop 2
SYMATTR InstName C3
SYMATTR Value 1µF
SYMBOL ind 160 -64 R0
SYMATTR InstName RFC
SYMATTR Value 10000µH
SYMBOL res 544 -32 R0
SYMATTR InstName Rb2
SYMATTR Value 20k
SYMBOL res 544 160 R0
SYMATTR InstName Rb1
SYMATTR Value 20k
SYMBOL npn 672 64 R0
SYMATTR InstName Q1
SYMATTR Value 2N3904
SYMBOL res 720 -128 R0
SYMATTR InstName Rc
SYMATTR Value 1k
SYMBOL cap 960 0 R90
WINDOW 0 0 32 VBottom 2
WINDOW 3 32 32 VTop 2
SYMATTR InstName Cc3
SYMATTR Value 1µF
SYMBOL res 720 208 R0
SYMATTR InstName Re
SYMATTR Value 1k
SYMBOL cap 912 224 R0
SYMATTR InstName Ce
SYMATTR Value 1µF
SYMBOL lm386 544 656 R0
SYMATTR InstName U1
SYMBOL cap 576 512 R0
SYMATTR InstName C1
SYMATTR Value 10µF
SYMBOL res 512 448 R0
SYMATTR InstName R1
SYMATTR Value 1.2k
SYMBOL res 656 672 R0
SYMATTR InstName R2
SYMATTR Value 10
SYMBOL cap 816 640 R90
WINDOW 0 0 32 VBottom 2
WINDOW 3 32 32 VTop 2
SYMATTR InstName C2
SYMATTR Value 250µF
SYMBOL cap 688 880 R180
WINDOW 0 24 56 Left 2
WINDOW 3 24 8 Left 2
SYMATTR InstName C4
SYMATTR Value 0.05µF
SYMBOL res 880 672 R0
SYMATTR InstName RL1
SYMATTR Value 10
SYMBOL res 384 736 R0
SYMATTR InstName R3
SYMATTR Value 2.2k
SYMBOL res 368 688 R90
WINDOW 0 0 56 VBottom 2
WINDOW 3 32 56 VTop 2
SYMATTR InstName R4
SYMATTR Value 6.8k
SYMBOL diode -640 720 R270
WINDOW 0 32 32 VTop 2
WINDOW 3 0 32 VBottom 2
SYMATTR InstName D1
SYMATTR Value 1N4148
SYMBOL cap -512 752 R0
SYMATTR InstName C5
SYMATTR Value 0.1µF
SYMBOL res -368 736 R0
SYMATTR InstName R5
SYMATTR Value 1k
SYMBOL cap -208 688 R90
WINDOW 0 0 32 VBottom 2
WINDOW 3 32 32 VTop 2
SYMATTR InstName C6
SYMATTR Value 47µF
SYMBOL res -736 544 R0
SYMATTR InstName Rd1
SYMATTR Value 100k
SYMBOL res -736 768 R0
SYMATTR InstName Rd2
SYMATTR Value 10k
SYMBOL cap -1056 96 R0
SYMATTR InstName C8
SYMATTR Value 1000µF
SYMBOL res -528 -176 R90
WINDOW 0 0 56 VBottom 2
WINDOW 3 32 56 VTop 2
SYMATTR InstName R6
SYMATTR Value 90k
SYMBOL res -464 -32 R180
WINDOW 0 36 76 Left 2
WINDOW 3 36 40 Left 2
SYMATTR InstName R7
SYMATTR Value 10k
TEXT -952 -88 Left 2 !.tran 0 8m 4m 1u
